# STR package for  MODFLOW-2005, generated by Flopy.
50 3 2 0 1 86400.0 53 53 
